data_image0
_cell_length_a       10.24
_cell_length_b       10.24
_cell_length_c       12
_cell_angle_alpha    90
_cell_angle_beta     90
_cell_angle_gamma    90

_symmetry_space_group_name_H-M    "P 1"
_symmetry_int_tables_number       1

loop_
  _symmetry_equiv_pos_as_xyz
  'x, y, z'

loop_
  _atom_site_label
  _atom_site_occupancy
  _atom_site_Cartn_x
  _atom_site_Cartn_y
  _atom_site_Cartn_z
  _atom_site_thermal_displace_type
  _atom_site_B_iso_or_equiv
  _atom_site_type_symbol
  C1       1.0000 6.46768  8.88508  6.38033  Biso   1.000  C
  C2       1.0000 0.16355  2.31163  5.55802  Biso   1.000  C
  C3       1.0000 3.16609  3.41491  9.73732  Biso   1.000  C
  C4       1.0000 7.81567  6.53169  1.31775  Biso   1.000  C
  C5       1.0000 9.12081  6.96437  10.48326  Biso   1.000  C
  C6       1.0000 0.32665  3.90731  2.31429  Biso   1.000  C
  C7       1.0000 1.47008  4.04384  6.98390  Biso   1.000  C
  C8       1.0000 1.80985  8.10562  7.83058  Biso   1.000  C
  C9       1.0000 1.43972  9.95553  4.54805  Biso   1.000  C
  C10      1.0000 1.63797  8.25498  8.28334  Biso   1.000  C
  C11      1.0000 5.92456  5.19383  10.40156  Biso   1.000  C
  C12      1.0000 2.41888  9.93745  5.24203  Biso   1.000  C
  C13      1.0000 8.74449  2.71096  4.27971  Biso   1.000  C
  C14      1.0000 0.88099  9.23733  5.59709  Biso   1.000  C
  C15      1.0000 9.77001  0.60868  2.13043  Biso   1.000  C
  C16      1.0000 2.05457  5.64988  4.10102  Biso   1.000  C
  C17      1.0000 8.20119  3.77329  4.27938  Biso   1.000  C
  C18      1.0000 4.48315  1.49879  2.95698  Biso   1.000  C
  C19      1.0000 9.84567  5.66019  9.44678  Biso   1.000  C
  C20      1.0000 5.80057  7.93017  9.18262  Biso   1.000  C
  C21      1.0000 4.96391  5.75396  8.06556  Biso   1.000  C
  C22      1.0000 6.26391  1.35900  7.52529  Biso   1.000  C
  C23      1.0000 1.30062  5.44995  7.35720  Biso   1.000  C
  C24      1.0000 0.85615  3.47874  10.10266  Biso   1.000  C
  C25      1.0000 4.35637  1.85489  7.31477  Biso   1.000  C
  C26      1.0000 5.69846  1.22381  10.89144  Biso   1.000  C
  C27      1.0000 6.67846  3.33703  2.75766  Biso   1.000  C
  C28      1.0000 7.75994  0.80745  7.07254  Biso   1.000  C
  C29      1.0000 1.96216  7.63298  3.87718  Biso   1.000  C
  C30      1.0000 7.52755  2.62005  4.40445  Biso   1.000  C
  C31      1.0000 10.02039  5.13376  6.21131  Biso   1.000  C
  C32      1.0000 3.50324  4.56615  6.89782  Biso   1.000  C
  C33      1.0000 5.34512  6.56081  10.10298  Biso   1.000  C
  C34      1.0000 5.79118  4.71594  7.33847  Biso   1.000  C
  C35      1.0000 5.46625  9.05481  9.50934  Biso   1.000  C
  C36      1.0000 4.10025  0.81804  1.45901  Biso   1.000  C
  C37      1.0000 0.26894  0.38959  7.73128  Biso   1.000  C
  C38      1.0000 8.46513  0.56948  1.87191  Biso   1.000  C
  C39      1.0000 9.40619  2.67951  0.98169  Biso   1.000  C
  C40      1.0000 5.02508  5.65918  5.92371  Biso   1.000  C
  C41      1.0000 8.58287  5.20190  7.94124  Biso   1.000  C
  C42      1.0000 3.32760  0.67530  4.44877  Biso   1.000  C
  C43      1.0000 9.13370  7.18620  2.60336  Biso   1.000  C
  C44      1.0000 6.20680  0.26481  0.91774  Biso   1.000  C
  C45      1.0000 6.22598  3.89890  3.32407  Biso   1.000  C
  C46      1.0000 2.46175  0.59956  2.03032  Biso   1.000  C
  C47      1.0000 7.65090  3.16313  3.55504  Biso   1.000  C
  C48      1.0000 7.70739  2.81651  8.70151  Biso   1.000  C
  C49      1.0000 9.52283  7.41914  8.09993  Biso   1.000  C
  C50      1.0000 2.77859  0.60381  1.26635  Biso   1.000  C
  C51      1.0000 9.26259  0.35556  2.70145  Biso   1.000  C
  C52      1.0000 0.41816  7.99244  2.96853  Biso   1.000  C
  C53      1.0000 9.78649  2.51721  11.05343  Biso   1.000  C
  C54      1.0000 8.02220  9.73235  3.15299  Biso   1.000  C
  C55      1.0000 7.28525  3.60558  10.61963  Biso   1.000  C
  C56      1.0000 8.90091  4.76872  3.24432  Biso   1.000  C
  C57      1.0000 3.78221  8.52119  4.86181  Biso   1.000  C
  C58      1.0000 7.47744  8.09054  9.75289  Biso   1.000  C
  C59      1.0000 6.39849  1.02875  9.22701  Biso   1.000  C
  C60      1.0000 6.23472  5.76281  3.17234  Biso   1.000  C
  C61      1.0000 0.79445  2.21307  10.60078  Biso   1.000  C
  C62      1.0000 6.19331  0.86911  4.10616  Biso   1.000  C
  C63      1.0000 4.41244  1.51989  3.35503  Biso   1.000  C
  C64      1.0000 1.66699  7.30179  10.79224  Biso   1.000  C
  C65      1.0000 3.30273  9.93578  6.96410  Biso   1.000  C
  C66      1.0000 8.84258  9.29856  10.63554  Biso   1.000  C
  C67      1.0000 8.49893  6.29842  3.74838  Biso   1.000  C
  C68      1.0000 2.83819  2.84826  9.37752  Biso   1.000  C
  C69      1.0000 6.85645  3.20766  5.24072  Biso   1.000  C
  C70      1.0000 0.82052  1.59818  5.91186  Biso   1.000  C
  C71      1.0000 1.75992  7.70080  7.53211  Biso   1.000  C
  C72      1.0000 5.57061  1.20537  5.73641  Biso   1.000  C
  C73      1.0000 6.01001  5.58268  7.86933  Biso   1.000  C
  C74      1.0000 9.99744  6.13543  10.53739  Biso   1.000  C
  C75      1.0000 9.83636  8.35092  3.10905  Biso   1.000  C
  C76      1.0000 0.07084  9.38223  5.32091  Biso   1.000  C
  C77      1.0000 3.65571  1.00601  4.75099  Biso   1.000  C
  C78      1.0000 1.72366  6.48265  0.96663  Biso   1.000  C
  C79      1.0000 3.53410  1.50516  9.84531  Biso   1.000  C
  C80      1.0000 0.64972  2.71696  5.43297  Biso   1.000  C
  C81      1.0000 2.22192  9.90105  7.10777  Biso   1.000  C
  C82      1.0000 7.02459  2.26392  2.71373  Biso   1.000  C
  C83      1.0000 7.14498  2.17436  5.85248  Biso   1.000  C
  C84      1.0000 7.42831  6.97594  10.08699  Biso   1.000  C
  C85      1.0000 7.41250  0.14191  9.48584  Biso   1.000  C
  C86      1.0000 9.42797  7.67968  9.50408  Biso   1.000  C
  C87      1.0000 6.96779  1.01082  9.94964  Biso   1.000  C
  C88      1.0000 4.81466  5.70808  9.53231  Biso   1.000  C
  C89      1.0000 3.39249  3.10639  2.11490  Biso   1.000  C
  C90      1.0000 4.09161  8.70249  1.54055  Biso   1.000  C
  C91      1.0000 3.30425  3.34700  1.03472  Biso   1.000  C
  C92      1.0000 6.94969  8.89277  10.59349  Biso   1.000  C
  C93      1.0000 5.04726  3.50470  3.76686  Biso   1.000  C
  C94      1.0000 5.45479  9.80873  1.83409  Biso   1.000  C
  C95      1.0000 9.95185  0.62186  2.83064  Biso   1.000  C
  C96      1.0000 7.21589  2.57737  8.70952  Biso   1.000  C
  C97      1.0000 1.93160  4.64903  5.98875  Biso   1.000  C
  C98      1.0000 7.77438  1.85673  6.97919  Biso   1.000  C
  C99      1.0000 0.13065  6.30417  2.41394  Biso   1.000  C
  C100     1.0000 2.07334  2.07910  6.34262  Biso   1.000  C
  C101     1.0000 8.23721  2.43915  5.59061  Biso   1.000  C
  C102     1.0000 2.68293  9.94315  8.79807  Biso   1.000  C
  C103     1.0000 0.82956  4.56752  6.59021  Biso   1.000  C
  C104     1.0000 9.19799  2.48195  3.07520  Biso   1.000  C
  C105     1.0000 2.13154  9.04610  2.80792  Biso   1.000  C
  C106     1.0000 5.84580  5.92562  8.99138  Biso   1.000  C
  C107     1.0000 6.78493  10.00054  1.75275  Biso   1.000  C
  C108     1.0000 10.11053  6.25786  2.17332  Biso   1.000  C
  C109     1.0000 8.06555  1.55310  4.07092  Biso   1.000  C
  C110     1.0000 8.70799  0.67591  3.56832  Biso   1.000  C
  C111     1.0000 6.30950  5.49585  4.04685  Biso   1.000  C
  C112     1.0000 0.85167  1.85427  5.67268  Biso   1.000  C
  C113     1.0000 7.83795  4.37411  9.17122  Biso   1.000  C
  C114     1.0000 9.87700  5.68374  9.98290  Biso   1.000  C
  C115     1.0000 5.55644  1.41481  1.47325  Biso   1.000  C
  C116     1.0000 0.47999  3.99999  4.61045  Biso   1.000  C
  C117     1.0000 0.90630  8.96760  4.96857  Biso   1.000  C
  C118     1.0000 5.86988  4.68235  1.93010  Biso   1.000  C
  C119     1.0000 1.82029  2.84165  8.80122  Biso   1.000  C
  C120     1.0000 9.85554  2.70478  2.04029  Biso   1.000  C
  C121     1.0000 4.64039  1.29566  3.23166  Biso   1.000  C
  C122     1.0000 7.85332  7.83068  4.33164  Biso   1.000  C
  C123     1.0000 7.65499  7.56143  10.33341  Biso   1.000  C
  C124     1.0000 6.13078  3.34781  3.37480  Biso   1.000  C
  C125     1.0000 6.84761  0.10828  6.11960  Biso   1.000  C
  C126     1.0000 4.29673  4.21441  7.72070  Biso   1.000  C
  C127     1.0000 4.26588  4.34862  8.32190  Biso   1.000  C
  C128     1.0000 9.13053  5.89122  4.12693  Biso   1.000  C
  C129     1.0000 1.54470  9.33405  1.62732  Biso   1.000  C
  C130     1.0000 8.69380  4.75232  1.58976  Biso   1.000  C
  C131     1.0000 4.75971  9.68751  7.51599  Biso   1.000  C
  C132     1.0000 7.19813  8.37198  10.37886  Biso   1.000  C
  C133     1.0000 3.63813  1.12933  9.08901  Biso   1.000  C
  C134     1.0000 3.64919  1.11548  1.05238  Biso   1.000  C
  C135     1.0000 2.12522  8.80968  4.70200  Biso   1.000  C
  C136     1.0000 6.66918  9.26018  4.09804  Biso   1.000  C
  C137     1.0000 0.03834  8.50723  6.92493  Biso   1.000  C
  C138     1.0000 1.01277  5.05872  9.90512  Biso   1.000  C
  C139     1.0000 1.43130  2.52877  4.97499  Biso   1.000  C
  C140     1.0000 7.79172  4.11861  10.29821  Biso   1.000  C
  C141     1.0000 1.50458  0.94979  11.04817  Biso   1.000  C
  C142     1.0000 2.10120  3.39486  6.18245  Biso   1.000  C
  C143     1.0000 6.22598  2.88889  8.83923  Biso   1.000  C
  C144     1.0000 3.30567  4.15968  7.64390  Biso   1.000  C
  C145     1.0000 1.99498  3.80298  5.39632  Biso   1.000  C
  C146     1.0000 5.77636  9.60105  9.37547  Biso   1.000  C
  C147     1.0000 1.64744  4.02954  8.51165  Biso   1.000  C
  C148     1.0000 5.48860  8.90047  3.29182  Biso   1.000  C
  C149     1.0000 1.29921  1.67667  6.37069  Biso   1.000  C
  C150     1.0000 4.27144  3.14202  6.27223  Biso   1.000  C
  C151     1.0000 0.47290  3.63262  8.25449  Biso   1.000  C
  C152     1.0000 4.89663  5.70029  10.38117  Biso   1.000  C
  C153     1.0000 7.68424  8.47256  10.59909  Biso   1.000  C
  C154     1.0000 3.99755  5.12677  3.05960  Biso   1.000  C
  C155     1.0000 7.78063  7.61626  7.50285  Biso   1.000  C
  C156     1.0000 0.49551  3.89504  9.10423  Biso   1.000  C
  C157     1.0000 3.18153  8.93060  1.42397  Biso   1.000  C
  C158     1.0000 4.79454  3.29148  9.02479  Biso   1.000  C
  C159     1.0000 1.38619  2.47076  2.74713  Biso   1.000  C
  C160     1.0000 7.63855  1.91433  7.26420  Biso   1.000  C
  C161     1.0000 7.28002  6.93109  1.95721  Biso   1.000  C
  C162     1.0000 7.54649  8.72257  3.71069  Biso   1.000  C
  C163     1.0000 7.46983  1.46684  10.35277  Biso   1.000  C
  C164     1.0000 2.77974  8.00080  7.74801  Biso   1.000  C
  C165     1.0000 3.97139  8.99008  3.30915  Biso   1.000  C
  C166     1.0000 7.92937  0.65019  1.14170  Biso   1.000  C
  C167     1.0000 5.67892  9.99096  7.55160  Biso   1.000  C
  C168     1.0000 3.34328  5.99183  9.04279  Biso   1.000  C
  C169     1.0000 3.79221  4.97928  7.14953  Biso   1.000  C
  C170     1.0000 10.11718  7.23582  4.25647  Biso   1.000  C
  C171     1.0000 2.66205  0.35630  5.07343  Biso   1.000  C
  C172     1.0000 2.34872  1.79201  10.22017  Biso   1.000  C
  C173     1.0000 5.97973  9.28293  2.37315  Biso   1.000  C
  C174     1.0000 9.22825  4.43420  11.08226  Biso   1.000  C
  C175     1.0000 3.48548  4.84555  3.18925  Biso   1.000  C
  C176     1.0000 2.14414  9.78808  9.94615  Biso   1.000  C
  C177     1.0000 1.44219  5.27260  5.12258  Biso   1.000  C
  C178     1.0000 1.67017  7.64326  2.47231  Biso   1.000  C
  C179     1.0000 2.12081  5.15243  1.88634  Biso   1.000  C
  C180     1.0000 6.93525  3.06065  10.24882  Biso   1.000  C
  C181     1.0000 9.35340  7.76742  6.29989  Biso   1.000  C
  C182     1.0000 9.64875  0.83641  3.91061  Biso   1.000  C
  C183     1.0000 6.31695  6.91589  6.14394  Biso   1.000  C
  C184     1.0000 8.61097  5.18176  7.23046  Biso   1.000  C
  C185     1.0000 8.58646  0.81703  1.17777  Biso   1.000  C
  C186     1.0000 2.50968  3.91426  5.81711  Biso   1.000  C
  C187     1.0000 7.31879  7.42474  1.30266  Biso   1.000  C
  C188     1.0000 9.77336  9.36558  3.46932  Biso   1.000  C
  C189     1.0000 6.86274  2.63179  1.63444  Biso   1.000  C
  C190     1.0000 3.36940  3.23805  4.38285  Biso   1.000  C
  C191     1.0000 7.87724  1.92587  2.04981  Biso   1.000  C
  C192     1.0000 9.47060  8.47706  5.41502  Biso   1.000  C
  C193     1.0000 1.32574  4.37004  7.88024  Biso   1.000  C
  C194     1.0000 7.23320  4.39030  4.86908  Biso   1.000  C
  C195     1.0000 4.47851  1.88231  10.07450  Biso   1.000  C
  C196     1.0000 0.63451  6.20088  5.19543  Biso   1.000  C
  C197     1.0000 2.61431  7.07419  10.56464  Biso   1.000  C
  C198     1.0000 4.37919  9.56358  10.57999  Biso   1.000  C
  C199     1.0000 6.31151  5.12135  11.00297  Biso   1.000  C
  C200     1.0000 1.78810  4.54333  2.53405  Biso   1.000  C
